# generated using pymatgen
data_Eu(DyS2)2
_symmetry_space_group_name_H-M   'P 1'
_cell_length_a   3.96698775
_cell_length_b   11.87653503
_cell_length_c   14.25424695
_cell_angle_alpha   90.00000000
_cell_angle_beta   90.00000000
_cell_angle_gamma   90.00000000
_symmetry_Int_Tables_number   1
_chemical_formula_structural   Eu(DyS2)2
_chemical_formula_sum   'Eu4 Dy8 S16'
_cell_volume   671.57557401
_cell_formula_units_Z   4
loop_
 _symmetry_equiv_pos_site_id
 _symmetry_equiv_pos_as_xyz
  1  'x, y, z'
loop_
 _atom_site_type_symbol
 _atom_site_label
 _atom_site_symmetry_multiplicity
 _atom_site_fract_x
 _atom_site_fract_y
 _atom_site_fract_z
 _atom_site_occupancy
  Eu  Eu0  1  0.25000000  0.75602231  0.33886974  1
  Eu  Eu1  1  0.25000000  0.25602231  0.16113026  1
  Eu  Eu2  1  0.75000000  0.24397769  0.66113026  1
  Eu  Eu3  1  0.75000000  0.74397769  0.83886974  1
  Dy  Dy4  1  0.25000000  0.42950231  0.38986274  1
  Dy  Dy5  1  0.25000000  0.92950231  0.11013726  1
  Dy  Dy6  1  0.75000000  0.57049769  0.61013726  1
  Dy  Dy7  1  0.75000000  0.07049769  0.88986274  1
  Dy  Dy8  1  0.25000000  0.41968528  0.89892242  1
  Dy  Dy9  1  0.25000000  0.91968528  0.60107758  1
  Dy  Dy10  1  0.75000000  0.58031472  0.10107758  1
  Dy  Dy11  1  0.75000000  0.08031472  0.39892242  1
  S  S12  1  0.25000000  0.20903975  0.82117577  1
  S  S13  1  0.25000000  0.70903975  0.67882423  1
  S  S14  1  0.75000000  0.79096025  0.17882423  1
  S  S15  1  0.75000000  0.29096025  0.32117577  1
  S  S16  1  0.25000000  0.13322912  0.52720089  1
  S  S17  1  0.25000000  0.63322912  0.97279911  1
  S  S18  1  0.75000000  0.86677088  0.47279911  1
  S  S19  1  0.75000000  0.36677088  0.02720089  1
  S  S20  1  0.25000000  0.02058272  0.28419943  1
  S  S21  1  0.25000000  0.52058272  0.21580057  1
  S  S22  1  0.75000000  0.97941728  0.71580057  1
  S  S23  1  0.75000000  0.47941728  0.78419943  1
  S  S24  1  0.25000000  0.41425808  0.57996530  1
  S  S25  1  0.25000000  0.91425808  0.92003470  1
  S  S26  1  0.75000000  0.58574192  0.42003470  1
  S  S27  1  0.75000000  0.08574192  0.07996530  1
