# generated using pymatgen
data_Eu(GaS2)2
_symmetry_space_group_name_H-M   'P 1'
_cell_length_a   14.55203929
_cell_length_b   12.03348557
_cell_length_c   11.90643301
_cell_angle_alpha   74.87165267
_cell_angle_beta   52.96277359
_cell_angle_gamma   52.16804637
_symmetry_Int_Tables_number   1
_chemical_formula_structural   Eu(GaS2)2
_chemical_formula_sum   'Eu8 Ga16 S32'
_cell_volume   1294.89304905
_cell_formula_units_Z   8
loop_
 _symmetry_equiv_pos_site_id
 _symmetry_equiv_pos_as_xyz
  1  'x, y, z'
loop_
 _atom_site_type_symbol
 _atom_site_label
 _atom_site_symmetry_multiplicity
 _atom_site_fract_x
 _atom_site_fract_y
 _atom_site_fract_z
 _atom_site_occupancy
  Eu  Eu0  1  0.24794357  0.24795485  0.75204702  1
  Eu  Eu1  1  0.99999300  0.99999325  0.00000573  1
  Eu  Eu2  1  0.25000700  0.25000675  0.24999427  1
  Eu  Eu3  1  0.50000749  0.50000489  0.49999540  1
  Eu  Eu4  1  0.00205643  0.00204515  0.49795298  1
  Eu  Eu5  1  0.49795346  0.49795479  0.00203669  1
  Eu  Eu6  1  0.75204654  0.75204521  0.24796331  1
  Eu  Eu7  1  0.74999251  0.74999511  0.75000460  1
  Ga  Ga8  1  0.76015422  0.48872284  0.01387761  1
  Ga  Ga9  1  0.48870181  0.76015734  0.73726588  1
  Ga  Ga10  1  0.48984578  0.76127716  0.23612239  1
  Ga  Ga11  1  0.26493801  0.98546288  0.59312086  1
  Ga  Ga12  1  0.59308127  0.15649063  0.26496466  1
  Ga  Ga13  1  0.26453763  0.98504472  0.09354733  1
  Ga  Ga14  1  0.01382900  0.73724960  0.76021948  1
  Ga  Ga15  1  0.23617100  0.51275040  0.48978052  1
  Ga  Ga16  1  0.73722977  0.01385063  0.48871094  1
  Ga  Ga17  1  0.98546237  0.26495528  0.15645267  1
  Ga  Ga18  1  0.15649022  0.59309077  0.98546087  1
  Ga  Ga19  1  0.65691873  0.09350937  0.98503534  1
  Ga  Ga20  1  0.76129819  0.48984266  0.51273412  1
  Ga  Ga21  1  0.09350978  0.65690923  0.26453913  1
  Ga  Ga22  1  0.98506199  0.26453712  0.65687914  1
  Ga  Ga23  1  0.51277023  0.23614937  0.76128906  1
  S  S24  1  0.78207337  0.47015829  0.31002939  1
  S  S25  1  0.77983496  0.46793301  0.81226659  1
  S  S26  1  0.31004387  0.43774149  0.78206654  1
  S  S27  1  0.04069152  0.04290629  0.20924389  1
  S  S28  1  0.43775461  0.31003209  0.47015623  1
  S  S29  1  0.77723823  0.97490079  0.28387598  1
  S  S30  1  0.04124627  0.54302678  0.70936247  1
  S  S31  1  0.46792663  0.77984171  0.93997061  1
  S  S32  1  0.70701099  0.20872673  0.54363701  1
  S  S33  1  0.81224539  0.93996791  0.77984377  1
  S  S34  1  0.54367185  0.54058604  0.70695673  1
  S  S35  1  0.04288703  0.04072150  0.70714206  1
  S  S36  1  0.93995613  0.81225851  0.46793346  1
  S  S37  1  0.96392913  0.28385460  0.97492323  1
  S  S38  1  0.54284372  0.04076794  0.20708167  1
  S  S39  1  0.20930848  0.20709371  0.04075611  1
  S  S40  1  0.96615881  0.28604826  0.47272041  1
  S  S41  1  0.20924499  0.70715117  0.04071334  1
  S  S42  1  0.70941675  0.70633836  0.04124904  1
  S  S43  1  0.47276177  0.27509921  0.96612402  1
  S  S44  1  0.28384119  0.96395174  0.77727959  1
  S  S45  1  0.27511745  0.47274599  0.28600292  1
  S  S46  1  0.47016504  0.78206699  0.43773341  1
  S  S47  1  0.28607087  0.96614540  0.27507677  1
  S  S48  1  0.20875373  0.70697322  0.54063753  1
  S  S49  1  0.20711297  0.20927850  0.54285794  1
  S  S50  1  0.70715628  0.20923206  0.04291833  1
  S  S51  1  0.54298901  0.04127327  0.70636299  1
  S  S52  1  0.70632815  0.70941396  0.54304327  1
  S  S53  1  0.04075501  0.54284883  0.20928666  1
  S  S54  1  0.97488255  0.77725401  0.96399708  1
  S  S55  1  0.54058325  0.54366164  0.20875096  1
