# generated using pymatgen
data_Eu(YSe2)2
_symmetry_space_group_name_H-M   'P 1'
_cell_length_a   4.12432425
_cell_length_b   12.49021995
_cell_length_c   14.89893828
_cell_angle_alpha   90.00000000
_cell_angle_beta   90.00000000
_cell_angle_gamma   90.00000000
_symmetry_Int_Tables_number   1
_chemical_formula_structural   Eu(YSe2)2
_chemical_formula_sum   'Eu4 Y8 Se16'
_cell_volume   767.49969057
_cell_formula_units_Z   4
loop_
 _symmetry_equiv_pos_site_id
 _symmetry_equiv_pos_as_xyz
  1  'x, y, z'
loop_
 _atom_site_type_symbol
 _atom_site_label
 _atom_site_symmetry_multiplicity
 _atom_site_fract_x
 _atom_site_fract_y
 _atom_site_fract_z
 _atom_site_occupancy
  Eu  Eu0  1  0.75000000  0.74231216  0.16393265  1
  Eu  Eu1  1  0.75000000  0.24231216  0.33606735  1
  Eu  Eu2  1  0.25000000  0.25768784  0.83606735  1
  Eu  Eu3  1  0.25000000  0.75768784  0.66393265  1
  Y  Y4  1  0.75000000  0.06584535  0.11112166  1
  Y  Y5  1  0.75000000  0.56584535  0.38887834  1
  Y  Y6  1  0.25000000  0.93415465  0.88887834  1
  Y  Y7  1  0.25000000  0.43415465  0.61112166  1
  Y  Y8  1  0.75000000  0.08226253  0.59833941  1
  Y  Y9  1  0.75000000  0.58226253  0.90166059  1
  Y  Y10  1  0.25000000  0.91773747  0.40166059  1
  Y  Y11  1  0.25000000  0.41773747  0.09833941  1
  Se  Se12  1  0.75000000  0.29272101  0.67712673  1
  Se  Se13  1  0.75000000  0.79272101  0.82287327  1
  Se  Se14  1  0.25000000  0.70727899  0.32287327  1
  Se  Se15  1  0.25000000  0.20727899  0.17712673  1
  Se  Se16  1  0.75000000  0.36743826  0.96990376  1
  Se  Se17  1  0.75000000  0.86743826  0.53009624  1
  Se  Se18  1  0.25000000  0.63256174  0.03009624  1
  Se  Se19  1  0.25000000  0.13256174  0.46990376  1
  Se  Se20  1  0.75000000  0.47576782  0.21531035  1
  Se  Se21  1  0.75000000  0.97576782  0.28468965  1
  Se  Se22  1  0.25000000  0.52423218  0.78468965  1
  Se  Se23  1  0.25000000  0.02423218  0.71531035  1
  Se  Se24  1  0.75000000  0.08975638  0.92140764  1
  Se  Se25  1  0.75000000  0.58975638  0.57859236  1
  Se  Se26  1  0.25000000  0.91024362  0.07859236  1
  Se  Se27  1  0.25000000  0.41024362  0.42140764  1
