# generated using pymatgen
data_Cs2CuBr4
_symmetry_space_group_name_H-M   'P 1'
_cell_length_a   7.98721348
_cell_length_b   10.28151007
_cell_length_c   12.95183472
_cell_angle_alpha   90.00000000
_cell_angle_beta   90.00000000
_cell_angle_gamma   90.00000000
_symmetry_Int_Tables_number   1
_chemical_formula_structural   Cs2CuBr4
_chemical_formula_sum   'Cs8 Cu4 Br16'
_cell_volume   1063.61264328
_cell_formula_units_Z   4
loop_
 _symmetry_equiv_pos_site_id
 _symmetry_equiv_pos_as_xyz
  1  'x, y, z'
loop_
 _atom_site_type_symbol
 _atom_site_label
 _atom_site_symmetry_multiplicity
 _atom_site_fract_x
 _atom_site_fract_y
 _atom_site_fract_z
 _atom_site_occupancy
  Cs  Cs0  1  0.75000000  0.37406740  0.60501639  1
  Cs  Cs1  1  0.75000000  0.87406740  0.89498361  1
  Cs  Cs2  1  0.25000000  0.62593260  0.39498361  1
  Cs  Cs3  1  0.25000000  0.12593260  0.10501639  1
  Cs  Cs4  1  0.75000000  0.49261502  0.16643652  1
  Cs  Cs5  1  0.75000000  0.99261502  0.33356348  1
  Cs  Cs6  1  0.25000000  0.50738498  0.83356348  1
  Cs  Cs7  1  0.25000000  0.00738498  0.66643652  1
  Cu  Cu8  1  0.75000000  0.26919488  0.91850819  1
  Cu  Cu9  1  0.75000000  0.76919488  0.58149181  1
  Cu  Cu10  1  0.25000000  0.73080512  0.08149181  1
  Cu  Cu11  1  0.25000000  0.23080512  0.41850819  1
  Br  Br12  1  0.75000000  0.49719306  0.87859945  1
  Br  Br13  1  0.75000000  0.99719306  0.62140055  1
  Br  Br14  1  0.25000000  0.50280694  0.12140055  1
  Br  Br15  1  0.25000000  0.00280694  0.37859945  1
  Br  Br16  1  0.75000000  0.15529275  0.07957092  1
  Br  Br17  1  0.75000000  0.65529275  0.42042908  1
  Br  Br18  1  0.25000000  0.84470725  0.92042908  1
  Br  Br19  1  0.25000000  0.34470725  0.57957092  1
  Br  Br20  1  0.48340099  0.20533120  0.85651650  1
  Br  Br21  1  0.01659901  0.70533120  0.64348350  1
  Br  Br22  1  0.98340099  0.79466880  0.14348350  1
  Br  Br23  1  0.51659901  0.29466880  0.35651650  1
  Br  Br24  1  0.51659901  0.79466880  0.14348350  1
  Br  Br25  1  0.98340099  0.29466880  0.35651650  1
  Br  Br26  1  0.01659901  0.20533120  0.85651650  1
  Br  Br27  1  0.48340099  0.70533120  0.64348350  1
