# generated using pymatgen
data_Eu(LuSe2)2
_symmetry_space_group_name_H-M   'P 1'
_cell_length_a   4.04198056
_cell_length_b   12.37246311
_cell_length_c   14.61537801
_cell_angle_alpha   90.00000000
_cell_angle_beta   90.00000000
_cell_angle_gamma   90.00000000
_symmetry_Int_Tables_number   1
_chemical_formula_structural   Eu(LuSe2)2
_chemical_formula_sum   'Eu4 Lu8 Se16'
_cell_volume   730.90417123
_cell_formula_units_Z   4
loop_
 _symmetry_equiv_pos_site_id
 _symmetry_equiv_pos_as_xyz
  1  'x, y, z'
loop_
 _atom_site_type_symbol
 _atom_site_label
 _atom_site_symmetry_multiplicity
 _atom_site_fract_x
 _atom_site_fract_y
 _atom_site_fract_z
 _atom_site_occupancy
  Eu  Eu0  1  0.75000000  0.74002918  0.83375867  1
  Eu  Eu1  1  0.75000000  0.24002918  0.66624133  1
  Eu  Eu2  1  0.25000000  0.25997082  0.16624133  1
  Eu  Eu3  1  0.25000000  0.75997082  0.33375867  1
  Lu  Lu4  1  0.75000000  0.06029526  0.88848960  1
  Lu  Lu5  1  0.25000000  0.41634192  0.90275490  1
  Lu  Lu6  1  0.75000000  0.58365808  0.09724510  1
  Lu  Lu7  1  0.75000000  0.56029526  0.61151040  1
  Lu  Lu8  1  0.75000000  0.08365808  0.40275490  1
  Lu  Lu9  1  0.25000000  0.91634192  0.59724510  1
  Lu  Lu10  1  0.25000000  0.93970474  0.11151040  1
  Lu  Lu11  1  0.25000000  0.43970474  0.38848960  1
  Se  Se12  1  0.75000000  0.97188019  0.71489917  1
  Se  Se13  1  0.25000000  0.52811981  0.21489917  1
  Se  Se14  1  0.75000000  0.47188019  0.78510083  1
  Se  Se15  1  0.25000000  0.02811981  0.28510083  1
  Se  Se16  1  0.75000000  0.29543880  0.33045665  1
  Se  Se17  1  0.25000000  0.62830201  0.96894717  1
  Se  Se18  1  0.25000000  0.40872246  0.57622768  1
  Se  Se19  1  0.75000000  0.59127754  0.42377232  1
  Se  Se20  1  0.75000000  0.37169799  0.03105283  1
  Se  Se21  1  0.25000000  0.90872246  0.92377232  1
  Se  Se22  1  0.25000000  0.20456120  0.83045665  1
  Se  Se23  1  0.25000000  0.12830201  0.53105283  1
  Se  Se24  1  0.75000000  0.09127754  0.07622768  1
  Se  Se25  1  0.25000000  0.70456120  0.66954335  1
  Se  Se26  1  0.75000000  0.79543880  0.16954335  1
  Se  Se27  1  0.75000000  0.87169799  0.46894717  1
