# generated using pymatgen
data_Tb2EuSe4
_symmetry_space_group_name_H-M   'P 1'
_cell_length_a   4.13517528
_cell_length_b   12.48679118
_cell_length_c   14.94252562
_cell_angle_alpha   90.00000000
_cell_angle_beta   90.00000000
_cell_angle_gamma   90.00000000
_symmetry_Int_Tables_number   1
_chemical_formula_structural   Tb2EuSe4
_chemical_formula_sum   'Tb8 Eu4 Se16'
_cell_volume   771.55835956
_cell_formula_units_Z   4
loop_
 _symmetry_equiv_pos_site_id
 _symmetry_equiv_pos_as_xyz
  1  'x, y, z'
loop_
 _atom_site_type_symbol
 _atom_site_label
 _atom_site_symmetry_multiplicity
 _atom_site_fract_x
 _atom_site_fract_y
 _atom_site_fract_z
 _atom_site_occupancy
  Tb  Tb0  1  0.75000000  0.06785955  0.88926385  1
  Tb  Tb1  1  0.75000000  0.08151557  0.40098903  1
  Tb  Tb2  1  0.25000000  0.91848443  0.59901097  1
  Tb  Tb3  1  0.75000000  0.56785955  0.61073615  1
  Tb  Tb4  1  0.25000000  0.93214045  0.11073615  1
  Tb  Tb5  1  0.25000000  0.41848443  0.90098903  1
  Tb  Tb6  1  0.75000000  0.58151557  0.09901097  1
  Tb  Tb7  1  0.25000000  0.43214045  0.38926385  1
  Eu  Eu8  1  0.25000000  0.25704355  0.16330011  1
  Eu  Eu9  1  0.25000000  0.75704355  0.33669989  1
  Eu  Eu10  1  0.75000000  0.74295645  0.83669989  1
  Eu  Eu11  1  0.75000000  0.24295645  0.66330011  1
  Se  Se12  1  0.75000000  0.47760509  0.78453089  1
  Se  Se13  1  0.75000000  0.08831032  0.07941322  1
  Se  Se14  1  0.25000000  0.20841739  0.82174847  1
  Se  Se15  1  0.75000000  0.29158261  0.32174847  1
  Se  Se16  1  0.25000000  0.70841739  0.67825153  1
  Se  Se17  1  0.25000000  0.91168968  0.92058678  1
  Se  Se18  1  0.25000000  0.13354691  0.52944851  1
  Se  Se19  1  0.25000000  0.52239491  0.21546911  1
  Se  Se20  1  0.75000000  0.79158261  0.17825153  1
  Se  Se21  1  0.25000000  0.63354691  0.97055149  1
  Se  Se22  1  0.75000000  0.36645309  0.02944851  1
  Se  Se23  1  0.25000000  0.41168968  0.57941322  1
  Se  Se24  1  0.75000000  0.97760509  0.71546911  1
  Se  Se25  1  0.75000000  0.58831032  0.42058678  1
  Se  Se26  1  0.25000000  0.02239491  0.28453089  1
  Se  Se27  1  0.75000000  0.86645309  0.47055149  1
