# generated using pymatgen
data_Ba3SiI2
_symmetry_space_group_name_H-M   'P 1'
_cell_length_a   16.53391742
_cell_length_b   15.76920426
_cell_length_c   8.74439196
_cell_angle_alpha   79.18161732
_cell_angle_beta   69.52867325
_cell_angle_gamma   31.27633716
_symmetry_Int_Tables_number   1
_chemical_formula_structural   Ba3SiI2
_chemical_formula_sum   'Ba12 Si4 I8'
_cell_volume   1079.51606458
_cell_formula_units_Z   4
loop_
 _symmetry_equiv_pos_site_id
 _symmetry_equiv_pos_as_xyz
  1  'x, y, z'
loop_
 _atom_site_type_symbol
 _atom_site_label
 _atom_site_symmetry_multiplicity
 _atom_site_fract_x
 _atom_site_fract_y
 _atom_site_fract_z
 _atom_site_occupancy
  Ba  Ba0  1  0.37348573  0.94416558  0.58813764  1
  Ba  Ba1  1  0.58816991  0.09416818  0.37354154  1
  Ba  Ba2  1  0.30577243  0.87649500  0.15591391  1
  Ba  Ba3  1  0.94423630  0.37351215  0.09408068  1
  Ba  Ba4  1  0.45798102  0.04201943  0.04200464  1
  Ba  Ba5  1  0.87651402  0.30585082  0.66186287  1
  Ba  Ba6  1  0.09409370  0.58818168  0.94423372  1
  Ba  Ba7  1  0.66182534  0.15582326  0.87646415  1
  Ba  Ba8  1  0.79200961  0.20799166  0.20800825  1
  Ba  Ba9  1  0.20799293  0.79200524  0.79200283  1
  Ba  Ba10  1  0.15589508  0.66181753  0.30577871  1
  Ba  Ba11  1  0.04201297  0.45799017  0.45799343  1
  Si  Si12  1  0.08411285  0.08417885  0.91589506  1
  Si  Si13  1  0.91588776  0.91581585  0.08412427  1
  Si  Si14  1  0.16588933  0.16583078  0.33410351  1
  Si  Si15  1  0.33410420  0.33418392  0.16588126  1
  I  I16  1  0.67283156  0.67249616  0.82729799  1
  I  I17  1  0.74586070  0.74647943  0.25419226  1
  I  I18  1  0.25413730  0.25350620  0.74581025  1
  I  I19  1  0.57716022  0.57751787  0.42271066  1
  I  I20  1  0.99587032  0.99647152  0.50418558  1
  I  I21  1  0.82721786  0.82746282  0.67273143  1
  I  I22  1  0.42278617  0.42252643  0.57725724  1
  I  I23  1  0.50415269  0.50350846  0.99578913  1
