# generated using pymatgen
data_Co2(GeTe)3
_symmetry_space_group_name_H-M   'P 1'
_cell_length_a   8.71050793
_cell_length_b   8.71050793
_cell_length_c   8.71050839
_cell_angle_alpha   89.99348870
_cell_angle_beta   89.99348879
_cell_angle_gamma   89.99348780
_symmetry_Int_Tables_number   1
_chemical_formula_structural   Co2(GeTe)3
_chemical_formula_sum   'Co8 Ge12 Te12'
_cell_volume   660.89194045
_cell_formula_units_Z   4
loop_
 _symmetry_equiv_pos_site_id
 _symmetry_equiv_pos_as_xyz
  1  'x, y, z'
loop_
 _atom_site_type_symbol
 _atom_site_label
 _atom_site_symmetry_multiplicity
 _atom_site_fract_x
 _atom_site_fract_y
 _atom_site_fract_z
 _atom_site_occupancy
  Co  Co0  1  0.24475193  0.24475193  0.24475193  1
  Co  Co1  1  0.75524807  0.75524807  0.75524807  1
  Co  Co2  1  0.74545385  0.24856164  0.74791796  1
  Co  Co3  1  0.24856164  0.74791796  0.74545385  1
  Co  Co4  1  0.74791796  0.74545385  0.24856164  1
  Co  Co5  1  0.25454615  0.75143836  0.25208204  1
  Co  Co6  1  0.75143836  0.25208204  0.25454615  1
  Co  Co7  1  0.25208204  0.25454615  0.75143836  1
  Ge  Ge8  1  0.31986640  0.99649582  0.16646669  1
  Ge  Ge9  1  0.99649582  0.16646669  0.31986640  1
  Ge  Ge10  1  0.16646669  0.31986640  0.99649582  1
  Ge  Ge11  1  0.68013360  0.00350418  0.83353331  1
  Ge  Ge12  1  0.00350418  0.83353331  0.68013360  1
  Ge  Ge13  1  0.83353331  0.68013360  0.00350418  1
  Ge  Ge14  1  0.81980211  0.50065682  0.33288370  1
  Ge  Ge15  1  0.50065682  0.33288370  0.81980211  1
  Ge  Ge16  1  0.33288370  0.81980211  0.50065682  1
  Ge  Ge17  1  0.18019789  0.49934318  0.66711630  1
  Ge  Ge18  1  0.49934318  0.66711630  0.18019789  1
  Ge  Ge19  1  0.66711630  0.18019789  0.49934318  1
  Te  Te20  1  0.34417152  0.99919079  0.85240611  1
  Te  Te21  1  0.99919079  0.85240611  0.34417152  1
  Te  Te22  1  0.85240611  0.34417152  0.99919079  1
  Te  Te23  1  0.65582848  0.00080921  0.14759389  1
  Te  Te24  1  0.00080921  0.14759389  0.65582848  1
  Te  Te25  1  0.14759389  0.65582848  0.00080921  1
  Te  Te26  1  0.84470627  0.50461408  0.64711712  1
  Te  Te27  1  0.50461408  0.64711712  0.84470627  1
  Te  Te28  1  0.64711712  0.84470627  0.50461408  1
  Te  Te29  1  0.15529373  0.49538592  0.35288288  1
  Te  Te30  1  0.49538592  0.35288288  0.15529373  1
  Te  Te31  1  0.35288288  0.15529373  0.49538592  1
