# generated using pymatgen
data_Ge3Rh2Se3
_symmetry_space_group_name_H-M   'P 1'
_cell_length_a   8.59012558
_cell_length_b   8.59012558
_cell_length_c   8.59012529
_cell_angle_alpha   89.77967196
_cell_angle_beta   89.77967200
_cell_angle_gamma   89.77967225
_symmetry_Int_Tables_number   1
_chemical_formula_structural   Ge3Rh2Se3
_chemical_formula_sum   'Ge12 Rh8 Se12'
_cell_volume   633.85353291
_cell_formula_units_Z   4
loop_
 _symmetry_equiv_pos_site_id
 _symmetry_equiv_pos_as_xyz
  1  'x, y, z'
loop_
 _atom_site_type_symbol
 _atom_site_label
 _atom_site_symmetry_multiplicity
 _atom_site_fract_x
 _atom_site_fract_y
 _atom_site_fract_z
 _atom_site_occupancy
  Ge  Ge0  1  0.84946049  0.66517666  0.00234595  1
  Ge  Ge1  1  0.00234595  0.84946049  0.66517666  1
  Ge  Ge2  1  0.66517666  0.00234595  0.84946049  1
  Ge  Ge3  1  0.15053951  0.33482334  0.99765405  1
  Ge  Ge4  1  0.99765405  0.15053951  0.33482334  1
  Ge  Ge5  1  0.33482334  0.99765405  0.15053951  1
  Ge  Ge6  1  0.65098422  0.16478290  0.50207277  1
  Ge  Ge7  1  0.50207277  0.65098422  0.16478290  1
  Ge  Ge8  1  0.16478290  0.50207277  0.65098422  1
  Ge  Ge9  1  0.34901578  0.83521710  0.49792723  1
  Ge  Ge10  1  0.49792723  0.34901578  0.83521710  1
  Ge  Ge11  1  0.83521710  0.49792723  0.34901578  1
  Rh  Rh12  1  0.75289783  0.75289783  0.75289783  1
  Rh  Rh13  1  0.24710217  0.24710217  0.24710217  1
  Rh  Rh14  1  0.24855603  0.25423869  0.74989061  1
  Rh  Rh15  1  0.74989061  0.24855603  0.25423869  1
  Rh  Rh16  1  0.25423869  0.74989061  0.24855603  1
  Rh  Rh17  1  0.75144397  0.74576131  0.25010939  1
  Rh  Rh18  1  0.25010939  0.75144397  0.74576131  1
  Rh  Rh19  1  0.74576131  0.25010939  0.75144397  1
  Se  Se20  1  0.00002289  0.85769116  0.35274885  1
  Se  Se21  1  0.35274885  0.00002289  0.85769116  1
  Se  Se22  1  0.85769116  0.35274885  0.00002289  1
  Se  Se23  1  0.64167195  0.85290299  0.50373592  1
  Se  Se24  1  0.50373592  0.64167195  0.85290299  1
  Se  Se25  1  0.85290299  0.50373592  0.64167195  1
  Se  Se26  1  0.35832805  0.14709701  0.49626408  1
  Se  Se27  1  0.49626408  0.35832805  0.14709701  1
  Se  Se28  1  0.14709701  0.49626408  0.35832805  1
  Se  Se29  1  0.64725115  0.99997711  0.14230884  1
  Se  Se30  1  0.14230884  0.64725115  0.99997711  1
  Se  Se31  1  0.99997711  0.14230884  0.64725115  1
