# generated using pymatgen
data_Gd2Te3
_symmetry_space_group_name_H-M   'P 1'
_cell_length_a   4.34185113
_cell_length_b   11.94596689
_cell_length_c   12.07197169
_cell_angle_alpha   90.00000000
_cell_angle_beta   90.00000000
_cell_angle_gamma   90.00000000
_symmetry_Int_Tables_number   1
_chemical_formula_structural   Gd2Te3
_chemical_formula_sum   'Gd8 Te12'
_cell_volume   626.14431762
_cell_formula_units_Z   4
loop_
 _symmetry_equiv_pos_site_id
 _symmetry_equiv_pos_as_xyz
  1  'x, y, z'
loop_
 _atom_site_type_symbol
 _atom_site_label
 _atom_site_symmetry_multiplicity
 _atom_site_fract_x
 _atom_site_fract_y
 _atom_site_fract_z
 _atom_site_occupancy
  Gd  Gd0  1  0.25000000  0.18790348  0.48415664  1
  Gd  Gd1  1  0.25000000  0.31209652  0.98415664  1
  Gd  Gd2  1  0.75000000  0.81209652  0.51584336  1
  Gd  Gd3  1  0.75000000  0.68790348  0.01584336  1
  Gd  Gd4  1  0.25000000  0.00089170  0.80511438  1
  Gd  Gd5  1  0.25000000  0.49910830  0.30511438  1
  Gd  Gd6  1  0.75000000  0.99910830  0.19488562  1
  Gd  Gd7  1  0.75000000  0.50089170  0.69488562  1
  Te  Te8  1  0.25000000  0.62454973  0.54377438  1
  Te  Te9  1  0.25000000  0.87545027  0.04377438  1
  Te  Te10  1  0.75000000  0.37545027  0.45622562  1
  Te  Te11  1  0.75000000  0.12454973  0.95622562  1
  Te  Te12  1  0.25000000  0.94352344  0.38170985  1
  Te  Te13  1  0.25000000  0.55647656  0.88170985  1
  Te  Te14  1  0.75000000  0.05647656  0.61829015  1
  Te  Te15  1  0.75000000  0.44352344  0.11829015  1
  Te  Te16  1  0.25000000  0.30533464  0.72397952  1
  Te  Te17  1  0.25000000  0.19466536  0.22397952  1
  Te  Te18  1  0.75000000  0.69466536  0.27602048  1
  Te  Te19  1  0.75000000  0.80533464  0.77602048  1
