# generated using pymatgen
data_ErAsSe
_symmetry_space_group_name_H-M   'P 1'
_cell_length_a   3.86767166
_cell_length_b   3.90443333
_cell_length_c   17.32034079
_cell_angle_alpha   90.00000000
_cell_angle_beta   90.00000000
_cell_angle_gamma   90.00000000
_symmetry_Int_Tables_number   1
_chemical_formula_structural   ErAsSe
_chemical_formula_sum   'Er4 As4 Se4'
_cell_volume   261.55561182
_cell_formula_units_Z   4
loop_
 _symmetry_equiv_pos_site_id
 _symmetry_equiv_pos_as_xyz
  1  'x, y, z'
loop_
 _atom_site_type_symbol
 _atom_site_label
 _atom_site_symmetry_multiplicity
 _atom_site_fract_x
 _atom_site_fract_y
 _atom_site_fract_z
 _atom_site_occupancy
  Er  Er0  1  0.75000000  0.23920680  0.86019944  1
  Er  Er1  1  0.75000000  0.26079320  0.36019944  1
  Er  Er2  1  0.25000000  0.76079320  0.13980056  1
  Er  Er3  1  0.25000000  0.73920680  0.63980056  1
  As  As4  1  0.25000000  0.21305354  0.50155722  1
  As  As5  1  0.25000000  0.28694646  0.00155722  1
  As  As6  1  0.75000000  0.78694646  0.49844278  1
  As  As7  1  0.75000000  0.71305354  0.99844278  1
  Se  Se8  1  0.75000000  0.24169220  0.68756302  1
  Se  Se9  1  0.75000000  0.25830780  0.18756302  1
  Se  Se10  1  0.25000000  0.75830780  0.31243698  1
  Se  Se11  1  0.25000000  0.74169220  0.81243698  1
