# generated using pymatgen
data_BaCoN
_symmetry_space_group_name_H-M   'P 1'
_cell_length_a   5.51933863
_cell_length_b   9.63391916
_cell_length_c   23.74146851
_cell_angle_alpha   90.00000000
_cell_angle_beta   90.00000000
_cell_angle_gamma   90.00000000
_symmetry_Int_Tables_number   1
_chemical_formula_structural   BaCoN
_chemical_formula_sum   'Ba20 Co20 N20'
_cell_volume   1262.40183299
_cell_formula_units_Z   20
loop_
 _symmetry_equiv_pos_site_id
 _symmetry_equiv_pos_as_xyz
  1  'x, y, z'
loop_
 _atom_site_type_symbol
 _atom_site_label
 _atom_site_symmetry_multiplicity
 _atom_site_fract_x
 _atom_site_fract_y
 _atom_site_fract_z
 _atom_site_occupancy
  Ba  Ba0  1  0.00492125  0.99849692  0.25000000  1
  Ba  Ba1  1  0.50711642  0.15822683  0.45081660  1
  Ba  Ba2  1  0.96071905  0.67178781  0.84956283  1
  Ba  Ba3  1  0.53928095  0.17178781  0.84956283  1
  Ba  Ba4  1  0.49288358  0.84177317  0.54918340  1
  Ba  Ba5  1  0.99288358  0.65822683  0.04918340  1
  Ba  Ba6  1  0.03928095  0.32821219  0.34956283  1
  Ba  Ba7  1  0.46071905  0.82821219  0.15043717  1
  Ba  Ba8  1  0.96071905  0.67178781  0.65043717  1
  Ba  Ba9  1  0.00711642  0.34177317  0.95081660  1
  Ba  Ba10  1  0.46071905  0.82821219  0.34956283  1
  Ba  Ba11  1  0.00711642  0.34177317  0.54918340  1
  Ba  Ba12  1  0.03928095  0.32821219  0.15043717  1
  Ba  Ba13  1  0.99288358  0.65822683  0.45081660  1
  Ba  Ba14  1  0.49288358  0.84177317  0.95081660  1
  Ba  Ba15  1  0.49507875  0.49849692  0.25000000  1
  Ba  Ba16  1  0.53928095  0.17178781  0.65043717  1
  Ba  Ba17  1  0.50492125  0.50150308  0.75000000  1
  Ba  Ba18  1  0.99507875  0.00150308  0.75000000  1
  Ba  Ba19  1  0.50711642  0.15822683  0.04918340  1
  Co  Co20  1  0.46414613  0.84658877  0.80270511  1
  Co  Co21  1  0.53585387  0.15341123  0.30270511  1
  Co  Co22  1  0.03585387  0.34658877  0.80270511  1
  Co  Co23  1  0.03859836  0.99477395  0.89674986  1
  Co  Co24  1  0.96140164  0.00522605  0.39674986  1
  Co  Co25  1  0.46140164  0.49477395  0.89674986  1
  Co  Co26  1  0.96414613  0.65341123  0.19729489  1
  Co  Co27  1  0.46140164  0.49477395  0.60325014  1
  Co  Co28  1  0.53859836  0.50522605  0.39674986  1
  Co  Co29  1  0.03859836  0.99477395  0.60325014  1
  Co  Co30  1  0.03585387  0.34658877  0.69729489  1
  Co  Co31  1  0.00000000  -0.00000000  0.50000000  1
  Co  Co32  1  0.53585387  0.15341123  0.19729489  1
  Co  Co33  1  0.96414613  0.65341123  0.30270511  1
  Co  Co34  1  0.46414613  0.84658877  0.69729489  1
  Co  Co35  1  0.00000000  -0.00000000  -0.00000000  1
  Co  Co36  1  0.53859836  0.50522605  0.10325014  1
  Co  Co37  1  0.96140164  0.00522605  0.10325014  1
  Co  Co38  1  0.50000000  0.50000000  0.50000000  1
  Co  Co39  1  0.50000000  0.50000000  -0.00000000  1
  N  N40  1  0.25379355  0.92046957  0.85059274  1
  N  N41  1  0.75379355  0.57953043  0.35059274  1
  N  N42  1  0.68353496  0.56999933  0.55710343  1
  N  N43  1  0.24620645  0.42046957  0.85059274  1
  N  N44  1  0.33265855  0.22372771  0.25000000  1
  N  N45  1  0.81646504  0.06999933  0.55710343  1
  N  N46  1  0.16734145  0.72372771  0.25000000  1
  N  N47  1  0.66734145  0.77627229  0.75000000  1
  N  N48  1  0.68353496  0.56999933  0.94289657  1
  N  N49  1  0.74620645  0.07953043  0.14940726  1
  N  N50  1  0.75379355  0.57953043  0.14940726  1
  N  N51  1  0.31646504  0.43000067  0.44289657  1
  N  N52  1  0.18353496  0.93000067  0.44289657  1
  N  N53  1  0.81646504  0.06999933  0.94289657  1
  N  N54  1  0.74620645  0.07953043  0.35059274  1
  N  N55  1  0.83265855  0.27627229  0.75000000  1
  N  N56  1  0.24620645  0.42046957  0.64940726  1
  N  N57  1  0.18353496  0.93000067  0.05710343  1
  N  N58  1  0.25379355  0.92046957  0.64940726  1
  N  N59  1  0.31646504  0.43000067  0.05710343  1
