# generated using pymatgen
data_Gd3CI3
_symmetry_space_group_name_H-M   'P 1'
_cell_length_a   3.94913342
_cell_length_b   8.77070064
_cell_length_c   11.93805243
_cell_angle_alpha   92.42559398
_cell_angle_beta   90.00000000
_cell_angle_gamma   90.00000000
_symmetry_Int_Tables_number   1
_chemical_formula_structural   Gd3CI3
_chemical_formula_sum   'Gd6 C2 I6'
_cell_volume   413.12386586
_cell_formula_units_Z   2
loop_
 _symmetry_equiv_pos_site_id
 _symmetry_equiv_pos_as_xyz
  1  'x, y, z'
loop_
 _atom_site_type_symbol
 _atom_site_label
 _atom_site_symmetry_multiplicity
 _atom_site_fract_x
 _atom_site_fract_y
 _atom_site_fract_z
 _atom_site_occupancy
  Gd  Gd0  1  0.25000000  0.91720732  0.59916196  1
  Gd  Gd1  1  0.75000000  0.08166050  0.39826276  1
  Gd  Gd2  1  0.25000000  0.88726122  0.18428331  1
  Gd  Gd3  1  0.75000000  0.11296644  0.81734719  1
  Gd  Gd4  1  0.25000000  0.29352441  0.61597883  1
  Gd  Gd5  1  0.75000000  0.70591287  0.38383012  1
  C  C6  1  0.25000000  0.88335174  0.38542676  1
  C  C7  1  0.75000000  0.11807103  0.61550327  1
  I  I8  1  0.25000000  0.85567337  0.87528400  1
  I  I9  1  0.75000000  0.14416351  0.12426899  1
  I  I10  1  0.25000000  0.37815010  0.87320925  1
  I  I11  1  0.75000000  0.62273384  0.12679582  1
  I  I12  1  0.25000000  0.38479212  0.36724395  1
  I  I13  1  0.75000000  0.61453154  0.63340679  1
