# generated using pymatgen
data_Ce3S3N
_symmetry_space_group_name_H-M   'P 1'
_cell_length_a   4.08421106
_cell_length_b   12.10286801
_cell_length_c   13.03522584
_cell_angle_alpha   90.00000000
_cell_angle_beta   90.00000000
_cell_angle_gamma   90.00000000
_symmetry_Int_Tables_number   1
_chemical_formula_structural   Ce3S3N
_chemical_formula_sum   'Ce12 S12 N4'
_cell_volume   644.33991277
_cell_formula_units_Z   4
loop_
 _symmetry_equiv_pos_site_id
 _symmetry_equiv_pos_as_xyz
  1  'x, y, z'
loop_
 _atom_site_type_symbol
 _atom_site_label
 _atom_site_symmetry_multiplicity
 _atom_site_fract_x
 _atom_site_fract_y
 _atom_site_fract_z
 _atom_site_occupancy
  Ce  Ce0  1  0.75000000  0.40676668  0.87447696  1
  Ce  Ce1  1  0.25000000  0.59323332  0.12552304  1
  Ce  Ce2  1  0.75000000  0.90676668  0.62552304  1
  Ce  Ce3  1  0.25000000  0.09323332  0.37447696  1
  Ce  Ce4  1  0.75000000  0.77042338  0.86924755  1
  Ce  Ce5  1  0.25000000  0.22957662  0.13075245  1
  Ce  Ce6  1  0.75000000  0.27042338  0.63075245  1
  Ce  Ce7  1  0.25000000  0.72957662  0.36924755  1
  Ce  Ce8  1  0.75000000  0.96547018  0.15237078  1
  Ce  Ce9  1  0.25000000  0.03452982  0.84762922  1
  Ce  Ce10  1  0.75000000  0.46547018  0.34762922  1
  Ce  Ce11  1  0.25000000  0.53452982  0.65237078  1
  S  S12  1  0.75000000  0.64208197  0.50236336  1
  S  S13  1  0.25000000  0.35791803  0.49763664  1
  S  S14  1  0.75000000  0.14208197  0.99763664  1
  S  S15  1  0.25000000  0.85791803  0.00236336  1
  S  S16  1  0.75000000  0.42582496  0.10663671  1
  S  S17  1  0.25000000  0.57417504  0.89336329  1
  S  S18  1  0.75000000  0.92582496  0.39336329  1
  S  S19  1  0.25000000  0.07417504  0.60663671  1
  S  S20  1  0.75000000  0.73368216  0.20494652  1
  S  S21  1  0.25000000  0.26631784  0.79505348  1
  S  S22  1  0.75000000  0.23368216  0.29505348  1
  S  S23  1  0.25000000  0.76631784  0.70494652  1
  N  N24  1  0.75000000  0.44666638  0.70236865  1
  N  N25  1  0.25000000  0.55333362  0.29763135  1
  N  N26  1  0.75000000  0.94666638  0.79763135  1
  N  N27  1  0.25000000  0.05333362  0.20236865  1
