# generated using pymatgen
data_La3Te4Br
_symmetry_space_group_name_H-M   'P 1'
_cell_length_a   4.42102349
_cell_length_b   14.41453543
_cell_length_c   16.51288302
_cell_angle_alpha   90.00000000
_cell_angle_beta   90.00000000
_cell_angle_gamma   90.00000000
_symmetry_Int_Tables_number   1
_chemical_formula_structural   La3Te4Br
_chemical_formula_sum   'La12 Te16 Br4'
_cell_volume   1052.31649181
_cell_formula_units_Z   4
loop_
 _symmetry_equiv_pos_site_id
 _symmetry_equiv_pos_as_xyz
  1  'x, y, z'
loop_
 _atom_site_type_symbol
 _atom_site_label
 _atom_site_symmetry_multiplicity
 _atom_site_fract_x
 _atom_site_fract_y
 _atom_site_fract_z
 _atom_site_occupancy
  La  La0  1  0.25000000  0.91028165  0.62572303  1
  La  La1  1  0.25000000  0.58971835  0.12572303  1
  La  La2  1  0.75000000  0.08971835  0.37427697  1
  La  La3  1  0.75000000  0.41028165  0.87427697  1
  La  La4  1  0.75000000  0.25035375  0.61932356  1
  La  La5  1  0.75000000  0.24964625  0.11932356  1
  La  La6  1  0.25000000  0.74964625  0.38067644  1
  La  La7  1  0.25000000  0.75035375  0.88067644  1
  La  La8  1  0.75000000  0.57448960  0.63221273  1
  La  La9  1  0.75000000  0.92551040  0.13221273  1
  La  La10  1  0.25000000  0.42551040  0.36778727  1
  La  La11  1  0.25000000  0.07448960  0.86778727  1
  Te  Te12  1  0.25000000  0.41915684  0.57241499  1
  Te  Te13  1  0.25000000  0.08084316  0.07241499  1
  Te  Te14  1  0.75000000  0.58084316  0.42758501  1
  Te  Te15  1  0.75000000  0.91915684  0.92758501  1
  Te  Te16  1  0.75000000  0.04825188  0.71699734  1
  Te  Te17  1  0.75000000  0.45174812  0.21699734  1
  Te  Te18  1  0.25000000  0.95174812  0.28300266  1
  Te  Te19  1  0.25000000  0.54825188  0.78300266  1
  Te  Te20  1  0.75000000  0.77690263  0.73246073  1
  Te  Te21  1  0.75000000  0.72309737  0.23246073  1
  Te  Te22  1  0.25000000  0.22309737  0.26753927  1
  Te  Te23  1  0.25000000  0.27690263  0.76753927  1
  Te  Te24  1  0.25000000  0.11315837  0.52378654  1
  Te  Te25  1  0.25000000  0.38684163  0.02378654  1
  Te  Te26  1  0.75000000  0.88684163  0.47621346  1
  Te  Te27  1  0.75000000  0.61315837  0.97621346  1
  Br  Br28  1  0.25000000  0.70284015  0.56801022  1
  Br  Br29  1  0.25000000  0.79715985  0.06801022  1
  Br  Br30  1  0.75000000  0.29715985  0.43198978  1
  Br  Br31  1  0.75000000  0.20284015  0.93198978  1
