# generated using pymatgen
data_Ba4Si3Br2
_symmetry_space_group_name_H-M   'P 1'
_cell_length_a   8.94887462
_cell_length_b   8.90012166
_cell_length_c   15.20728866
_cell_angle_alpha   78.02265050
_cell_angle_beta   90.00000000
_cell_angle_gamma   90.00000000
_symmetry_Int_Tables_number   1
_chemical_formula_structural   Ba4Si3Br2
_chemical_formula_sum   'Ba16 Si12 Br8'
_cell_volume   1184.83263534
_cell_formula_units_Z   4
loop_
 _symmetry_equiv_pos_site_id
 _symmetry_equiv_pos_as_xyz
  1  'x, y, z'
loop_
 _atom_site_type_symbol
 _atom_site_label
 _atom_site_symmetry_multiplicity
 _atom_site_fract_x
 _atom_site_fract_y
 _atom_site_fract_z
 _atom_site_occupancy
  Ba  Ba0  1  0.71091512  0.52095046  0.95581907  1
  Ba  Ba1  1  0.21091512  0.97904954  0.04418093  1
  Ba  Ba2  1  0.28908488  0.47904954  0.04418093  1
  Ba  Ba3  1  0.78908488  0.02095046  0.95581907  1
  Ba  Ba4  1  0.66206488  0.73392022  0.33152450  1
  Ba  Ba5  1  0.16206488  0.76607978  0.66847550  1
  Ba  Ba6  1  0.33793512  0.26607978  0.66847550  1
  Ba  Ba7  1  0.83793512  0.23392022  0.33152450  1
  Ba  Ba8  1  0.06039565  0.37163464  0.85294592  1
  Ba  Ba9  1  0.56039565  0.12836536  0.14705408  1
  Ba  Ba10  1  0.93960435  0.62836536  0.14705408  1
  Ba  Ba11  1  0.43960435  0.87163464  0.85294592  1
  Ba  Ba12  1  0.67767262  0.61932417  0.65156293  1
  Ba  Ba13  1  0.17767262  0.88067583  0.34843707  1
  Ba  Ba14  1  0.32232738  0.38067583  0.34843707  1
  Ba  Ba15  1  0.82232738  0.11932417  0.65156293  1
  Si  Si16  1  0.06285821  0.74086731  0.91158985  1
  Si  Si17  1  0.56285821  0.75913269  0.08841015  1
  Si  Si18  1  0.93714179  0.25913269  0.08841015  1
  Si  Si19  1  0.43714179  0.24086731  0.91158985  1
  Si  Si20  1  0.43298519  0.49154609  0.81430428  1
  Si  Si21  1  0.93298519  0.00845391  0.18569572  1
  Si  Si22  1  0.56701481  0.50845391  0.18569572  1
  Si  Si23  1  0.06701481  0.99154609  0.81430428  1
  Si  Si24  1  0.63032014  0.30403210  0.80125295  1
  Si  Si25  1  0.13032014  0.19596790  0.19874705  1
  Si  Si26  1  0.36967986  0.69596790  0.19874705  1
  Si  Si27  1  0.86967986  0.80403210  0.80125295  1
  Br  Br28  1  0.36023200  0.63391684  0.50749351  1
  Br  Br29  1  0.86023200  0.86608316  0.49250649  1
  Br  Br30  1  0.63976800  0.36608316  0.49250649  1
  Br  Br31  1  0.13976800  0.13391684  0.50749351  1
  Br  Br32  1  0.49348739  0.94808695  0.63483903  1
  Br  Br33  1  0.99348739  0.55191305  0.36516097  1
  Br  Br34  1  0.50651261  0.05191305  0.36516097  1
  Br  Br35  1  0.00651261  0.44808695  0.63483903  1
