# generated using pymatgen
data_Ce4Te3N2
_symmetry_space_group_name_H-M   'P 1'
_cell_length_a   7.42181078
_cell_length_b   11.52923543
_cell_length_c   11.71671753
_cell_angle_alpha   90.00000000
_cell_angle_beta   90.00000000
_cell_angle_gamma   90.00000000
_symmetry_Int_Tables_number   1
_chemical_formula_structural   Ce4Te3N2
_chemical_formula_sum   'Ce16 Te12 N8'
_cell_volume   1002.57378678
_cell_formula_units_Z   4
loop_
 _symmetry_equiv_pos_site_id
 _symmetry_equiv_pos_as_xyz
  1  'x, y, z'
loop_
 _atom_site_type_symbol
 _atom_site_label
 _atom_site_symmetry_multiplicity
 _atom_site_fract_x
 _atom_site_fract_y
 _atom_site_fract_z
 _atom_site_occupancy
  Ce  Ce0  1  0.14911410  0.39187058  0.55015377  1
  Ce  Ce1  1  0.35088590  0.89187058  0.05015377  1
  Ce  Ce2  1  0.22444571  0.02945296  0.75000000  1
  Ce  Ce3  1  0.14911410  0.39187058  0.94984623  1
  Ce  Ce4  1  0.27555429  0.52945296  0.25000000  1
  Ce  Ce5  1  0.85088590  0.60812942  0.44984623  1
  Ce  Ce6  1  0.91411564  0.34175253  0.25000000  1
  Ce  Ce7  1  0.08588436  0.65824747  0.75000000  1
  Ce  Ce8  1  0.58588436  0.84175253  0.75000000  1
  Ce  Ce9  1  0.41411564  0.15824747  0.25000000  1
  Ce  Ce10  1  0.72444571  0.47054704  0.75000000  1
  Ce  Ce11  1  0.85088590  0.60812942  0.05015377  1
  Ce  Ce12  1  0.77555429  0.97054704  0.25000000  1
  Ce  Ce13  1  0.64911410  0.10812942  0.94984623  1
  Ce  Ce14  1  0.35088590  0.89187058  0.44984623  1
  Ce  Ce15  1  0.64911410  0.10812942  0.55015377  1
  Te  Te16  1  0.91864855  0.22916415  0.75000000  1
  Te  Te17  1  0.58135145  0.72916415  0.25000000  1
  Te  Te18  1  0.43006655  0.63673646  0.92196751  1
  Te  Te19  1  0.43006655  0.63673646  0.57803249  1
  Te  Te20  1  0.56993345  0.36326354  0.42196751  1
  Te  Te21  1  0.93006655  0.86326354  0.57803249  1
  Te  Te22  1  0.06993345  0.13673646  0.42196751  1
  Te  Te23  1  0.06993345  0.13673646  0.07803249  1
  Te  Te24  1  0.93006655  0.86326354  0.92196751  1
  Te  Te25  1  0.56993345  0.36326354  0.07803249  1
  Te  Te26  1  0.41864855  0.27083585  0.75000000  1
  Te  Te27  1  0.08135145  0.77083585  0.25000000  1
  N  N28  1  0.55475953  0.03310039  0.37832370  1
  N  N29  1  0.44524047  0.96689961  0.87832370  1
  N  N30  1  0.94524047  0.53310039  0.87832370  1
  N  N31  1  0.05475953  0.46689961  0.37832370  1
  N  N32  1  0.44524047  0.96689961  0.62167630  1
  N  N33  1  0.94524047  0.53310039  0.62167630  1
  N  N34  1  0.05475953  0.46689961  0.12167630  1
  N  N35  1  0.55475953  0.03310039  0.12167630  1
