# generated using pymatgen
data_KGaF4
_symmetry_space_group_name_H-M   'P 1'
_cell_length_a   7.49043534
_cell_length_b   7.66117070
_cell_length_c   12.13140172
_cell_angle_alpha   90.00015724
_cell_angle_beta   90.00018583
_cell_angle_gamma   89.99988436
_symmetry_Int_Tables_number   1
_chemical_formula_structural   KGaF4
_chemical_formula_sum   'K8 Ga8 F32'
_cell_volume   696.16659898
_cell_formula_units_Z   8
loop_
 _symmetry_equiv_pos_site_id
 _symmetry_equiv_pos_as_xyz
  1  'x, y, z'
loop_
 _atom_site_type_symbol
 _atom_site_label
 _atom_site_symmetry_multiplicity
 _atom_site_fract_x
 _atom_site_fract_y
 _atom_site_fract_z
 _atom_site_occupancy
  K  K0  1  0.24999814  0.37440759  0.47278836  1
  K  K1  1  0.75001034  0.62558719  0.52721081  1
  K  K2  1  0.75000202  0.87440683  0.02721153  1
  K  K3  1  0.24999012  0.12558625  0.97278889  1
  K  K4  1  0.74999482  0.37548661  0.01393780  1
  K  K5  1  0.24999326  0.62449317  0.98606160  1
  K  K6  1  0.25000061  0.87548868  0.48606058  1
  K  K7  1  0.75000535  0.12449652  0.51394212  1
  Ga  Ga8  1  0.50068576  0.62518895  0.25157738  1
  Ga  Ga9  1  0.00068486  0.37481661  0.74842069  1
  Ga  Ga10  1  0.49931340  0.12518879  0.24842639  1
  Ga  Ga11  1  0.99931534  0.87481831  0.75157716  1
  Ga  Ga12  1  0.49931391  0.37481705  0.74841852  1
  Ga  Ga13  1  0.99931409  0.62518911  0.25157743  1
  Ga  Ga14  1  0.50068765  0.87481804  0.75157740  1
  Ga  Ga15  1  0.00068697  0.12518852  0.24842493  1
  F  F16  1  0.54737550  0.61505510  0.10294171  1
  F  F17  1  0.04737528  0.38494221  0.89705630  1
  F  F18  1  0.45262189  0.11505602  0.39705780  1
  F  F19  1  0.95262678  0.88494198  0.60295006  1
  F  F20  1  0.45262135  0.38494031  0.89705611  1
  F  F21  1  0.95262474  0.61505271  0.10294093  1
  F  F22  1  0.54738299  0.88493711  0.60294835  1
  F  F23  1  0.04737434  0.11505354  0.39705684  1
  F  F24  1  0.45531837  0.63452366  0.40052890  1
  F  F25  1  0.95530840  0.36547429  0.59946950  1
  F  F26  1  0.54468380  0.13452484  0.09946541  1
  F  F27  1  0.04469384  0.86547029  0.90053691  1
  F  F28  1  0.54469095  0.36547716  0.59946634  1
  F  F29  1  0.04468280  0.63452596  0.40052798  1
  F  F30  1  0.45530755  0.86547553  0.90053824  1
  F  F31  1  0.95531025  0.13453169  0.09946654  1
  F  F32  1  0.04198744  0.12488925  0.75422906  1
  F  F33  1  0.54198738  0.87511223  0.24577121  1
  F  F34  1  0.95801709  0.62489051  0.74577359  1
  F  F35  1  0.45801014  0.37511371  0.25422668  1
  F  F36  1  0.95801057  0.87511442  0.24577015  1
  F  F37  1  0.45801738  0.12489070  0.75422707  1
  F  F38  1  0.04198970  0.37511425  0.25422792  1
  F  F39  1  0.54198375  0.62488965  0.74577433  1
  F  F40  1  0.75000010  0.16258652  0.28286341  1
  F  F41  1  0.24999865  0.83742640  0.71713210  1
  F  F42  1  0.24999867  0.66258027  0.21712886  1
  F  F43  1  0.75000320  0.33742653  0.78286930  1
  F  F44  1  0.24999942  0.08726158  0.21255181  1
  F  F45  1  0.75000228  0.91274059  0.78745233  1
  F  F46  1  0.75000075  0.58726147  0.28744518  1
  F  F47  1  0.24999901  0.41274028  0.71254949  1
