# generated using pymatgen
data_RbAlF4
_symmetry_space_group_name_H-M   'P 1'
_cell_length_a   10.31202646
_cell_length_b   10.31202743
_cell_length_c   10.31202608
_cell_angle_alpha   105.64128583
_cell_angle_beta   111.41946390
_cell_angle_gamma   111.41946843
_symmetry_Int_Tables_number   1
_chemical_formula_structural   RbAlF4
_chemical_formula_sum   'Rb10 Al10 F40'
_cell_volume   841.32735727
_cell_formula_units_Z   10
loop_
 _symmetry_equiv_pos_site_id
 _symmetry_equiv_pos_as_xyz
  1  'x, y, z'
loop_
 _atom_site_type_symbol
 _atom_site_label
 _atom_site_symmetry_multiplicity
 _atom_site_fract_x
 _atom_site_fract_y
 _atom_site_fract_z
 _atom_site_occupancy
  Rb  Rb0  1  0.49982840  0.02741769  0.84654336  1
  Rb  Rb1  1  0.50017160  0.34671496  0.52759029  1
  Rb  Rb2  1  0.18087532  0.15345664  0.65328504  1
  Rb  Rb3  1  0.81912468  0.47240971  0.97258231  1
  Rb  Rb4  1  0.81912468  0.84671496  0.34654336  1
  Rb  Rb5  1  0.50017160  0.65345664  0.47258231  1
  Rb  Rb6  1  0.49982840  0.97240971  0.15328504  1
  Rb  Rb7  1  0.18087532  0.52741769  0.02759029  1
  Rb  Rb8  1  -0.00000000  0.75000000  0.75000000  1
  Rb  Rb9  1  -0.00000000  0.25000000  0.25000000  1
  Al  Al10  1  0.28436518  0.57678414  0.70758298  1
  Al  Al11  1  0.71563482  0.42321780  0.29241896  1
  Al  Al12  1  0.86920116  0.29241702  0.57678220  1
  Al  Al13  1  0.13079884  0.70758104  0.42321586  1
  Al  Al14  1  0.13079884  0.92321780  0.20758298  1
  Al  Al15  1  0.71563482  0.79241702  0.92321586  1
  Al  Al16  1  0.28436518  0.20758104  0.07678220  1
  Al  Al17  1  0.86920116  0.07678414  0.79241896  1
  Al  Al18  1  0.50000000  0.50000000  -0.00000000  1
  Al  Al19  1  0.50000000  0.00000000  0.50000000  1
  F  F20  1  0.50000000  0.14026807  0.64026807  1
  F  F21  1  0.50000000  0.35973193  0.85973193  1
  F  F22  1  0.50000000  0.85973193  0.35973193  1
  F  F23  1  0.50000000  0.64026807  0.14026807  1
  F  F24  1  0.06112621  0.78056310  0.28056310  1
  F  F25  1  0.50000000  0.71943690  0.78056310  1
  F  F26  1  0.50000000  0.28056310  0.21943690  1
  F  F27  1  0.93887379  0.21943690  0.71943690  1
  F  F28  1  0.87077743  0.14997901  0.43861841  1
  F  F29  1  0.12922257  0.56784198  0.27920058  1
  F  F30  1  0.71135860  0.56138159  0.43215802  1
  F  F31  1  0.28864140  0.72079942  0.85002099  1
  F  F32  1  0.28864140  0.06784198  0.93861841  1
  F  F33  1  0.12922257  0.06138159  0.35002099  1
  F  F34  1  0.71135388  0.93204980  0.06148541  1
  F  F35  1  0.87077743  0.22079942  0.93215802  1
  F  F36  1  0.12943461  0.85013153  0.56148541  1
  F  F37  1  0.87056539  0.43204980  0.72069692  1
  F  F38  1  0.28864612  0.43851459  0.56795020  1
  F  F39  1  0.71135388  0.27930308  0.14986847  1
  F  F40  1  0.34542512  0.00139902  0.34411065  1
  F  F41  1  0.65728837  0.65588935  0.00131548  1
  F  F42  1  0.34271163  0.34402711  0.99860098  1
  F  F43  1  0.65457488  0.99868452  0.65597289  1
  F  F44  1  0.65457488  0.15588935  0.49860098  1
  F  F45  1  0.34542512  0.84402711  0.50131548  1
  F  F46  1  0.34271163  0.49868452  0.84411065  1
  F  F47  1  0.65728837  0.50139902  0.15597289  1
  F  F48  1  0.20850942  0.06644350  0.14218164  1
  F  F49  1  0.92426286  0.85781836  0.06632978  1
  F  F50  1  0.07573714  0.14206592  0.93355650  1
  F  F51  1  0.79149058  0.93367022  0.85793308  1
  F  F52  1  0.79149058  0.35781836  0.43355650  1
  F  F53  1  0.20850942  0.64206692  0.56632978  1
  F  F54  1  0.07573714  0.43367022  0.64218164  1
  F  F55  1  0.92426286  0.56644350  0.35793408  1
  F  F56  1  0.28864612  0.35013153  0.22069692  1
  F  F57  1  0.12943461  0.77930308  0.06795020  1
  F  F58  1  0.87056539  0.93851459  0.64986847  1
  F  F59  1  0.71135860  0.64997901  0.77920058  1
