# generated using pymatgen
data_Rb3(FeSe2)2
_symmetry_space_group_name_H-M   'P 1'
_cell_length_a   7.73082191
_cell_length_b   11.53967210
_cell_length_c   12.55272797
_cell_angle_alpha   90.00000000
_cell_angle_beta   90.00000000
_cell_angle_gamma   90.00000000
_symmetry_Int_Tables_number   1
_chemical_formula_structural   Rb3(FeSe2)2
_chemical_formula_sum   'Rb12 Fe8 Se16'
_cell_volume   1119.84329665
_cell_formula_units_Z   4
loop_
 _symmetry_equiv_pos_site_id
 _symmetry_equiv_pos_as_xyz
  1  'x, y, z'
loop_
 _atom_site_type_symbol
 _atom_site_label
 _atom_site_symmetry_multiplicity
 _atom_site_fract_x
 _atom_site_fract_y
 _atom_site_fract_z
 _atom_site_occupancy
  Rb  Rb0  1  0.91022052  0.75000000  0.23204207  1
  Rb  Rb1  1  0.07616537  0.43249899  0.13608452  1
  Rb  Rb2  1  0.92383463  0.56750101  0.86391548  1
  Rb  Rb3  1  0.92383463  0.93249899  0.86391548  1
  Rb  Rb4  1  0.41022052  0.75000000  0.26795793  1
  Rb  Rb5  1  0.07616537  0.06750101  0.13608452  1
  Rb  Rb6  1  0.58977948  0.25000000  0.73204207  1
  Rb  Rb7  1  0.42383463  0.56750101  0.63608452  1
  Rb  Rb8  1  0.42383463  0.93249899  0.63608452  1
  Rb  Rb9  1  0.57616537  0.06750101  0.36391548  1
  Rb  Rb10  1  0.57616537  0.43249899  0.36391548  1
  Rb  Rb11  1  0.08977948  0.25000000  0.76795793  1
  Fe  Fe12  1  0.55202772  0.36662575  0.03037180  1
  Fe  Fe13  1  0.05202772  0.13337425  0.46962820  1
  Fe  Fe14  1  0.44797228  0.86662575  0.96962820  1
  Fe  Fe15  1  0.55202772  0.13337425  0.03037180  1
  Fe  Fe16  1  0.94797228  0.63337425  0.53037180  1
  Fe  Fe17  1  0.94797228  0.86662575  0.53037180  1
  Fe  Fe18  1  0.05202772  0.36662575  0.46962820  1
  Fe  Fe19  1  0.44797228  0.63337425  0.96962820  1
  Se  Se20  1  0.58528665  0.75000000  0.83396753  1
  Se  Se21  1  0.91471335  0.25000000  0.33396753  1
  Se  Se22  1  0.41471335  0.25000000  0.16603247  1
  Se  Se23  1  0.20253126  0.75000000  0.03092901  1
  Se  Se24  1  0.08528665  0.75000000  0.66603247  1
  Se  Se25  1  0.70253126  0.75000000  0.46907099  1
  Se  Se26  1  0.79746874  0.25000000  0.96907099  1
  Se  Se27  1  0.85360063  0.05625166  0.60566525  1
  Se  Se28  1  0.14639937  0.55625166  0.39433475  1
  Se  Se29  1  0.64639937  0.94374834  0.10566525  1
  Se  Se30  1  0.35360063  0.05625166  0.89433475  1
  Se  Se31  1  0.29746874  0.25000000  0.53092901  1
  Se  Se32  1  0.35360063  0.44374834  0.89433475  1
  Se  Se33  1  0.85360063  0.44374834  0.60566525  1
  Se  Se34  1  0.64639937  0.55625166  0.10566525  1
  Se  Se35  1  0.14639937  0.94374834  0.39433475  1
