# generated using pymatgen
data_K3(FeSe2)2
_symmetry_space_group_name_H-M   'P 1'
_cell_length_a   7.47446202
_cell_length_b   11.38876425
_cell_length_c   12.08636677
_cell_angle_alpha   90.00000000
_cell_angle_beta   90.00000000
_cell_angle_gamma   90.00000000
_symmetry_Int_Tables_number   1
_chemical_formula_structural   K3(FeSe2)2
_chemical_formula_sum   'K12 Fe8 Se16'
_cell_volume   1028.85059153
_cell_formula_units_Z   4
loop_
 _symmetry_equiv_pos_site_id
 _symmetry_equiv_pos_as_xyz
  1  'x, y, z'
loop_
 _atom_site_type_symbol
 _atom_site_label
 _atom_site_symmetry_multiplicity
 _atom_site_fract_x
 _atom_site_fract_y
 _atom_site_fract_z
 _atom_site_occupancy
  K  K0  1  0.08890137  0.25000000  0.76510182  1
  K  K1  1  0.58890137  0.25000000  0.73489818  1
  K  K2  1  0.91109863  0.75000000  0.23489818  1
  K  K3  1  0.41109863  0.75000000  0.26510182  1
  K  K4  1  0.07618117  0.43024415  0.13602749  1
  K  K5  1  0.57618117  0.06975585  0.36397251  1
  K  K6  1  0.92381883  0.93024415  0.86397251  1
  K  K7  1  0.42381883  0.56975585  0.63602749  1
  K  K8  1  0.92381883  0.56975585  0.86397251  1
  K  K9  1  0.42381883  0.93024415  0.63602749  1
  K  K10  1  0.07618117  0.06975585  0.13602749  1
  K  K11  1  0.57618117  0.43024415  0.36397251  1
  Fe  Fe12  1  0.05147112  0.36669593  0.46841191  1
  Fe  Fe13  1  0.55147112  0.13330407  0.03158809  1
  Fe  Fe14  1  0.94852888  0.86669593  0.53158809  1
  Fe  Fe15  1  0.44852888  0.63330407  0.96841191  1
  Fe  Fe16  1  0.94852888  0.63330407  0.53158809  1
  Fe  Fe17  1  0.44852888  0.86669593  0.96841191  1
  Fe  Fe18  1  0.05147112  0.13330407  0.46841191  1
  Fe  Fe19  1  0.55147112  0.36669593  0.03158809  1
  Se  Se20  1  0.15489150  0.55738006  0.39017789  1
  Se  Se21  1  0.65489150  0.94261994  0.10982211  1
  Se  Se22  1  0.84510850  0.05738006  0.60982211  1
  Se  Se23  1  0.34510850  0.44261994  0.89017789  1
  Se  Se24  1  0.84510850  0.44261994  0.60982211  1
  Se  Se25  1  0.34510850  0.05738006  0.89017789  1
  Se  Se26  1  0.15489150  0.94261994  0.39017789  1
  Se  Se27  1  0.65489150  0.55738006  0.10982211  1
  Se  Se28  1  0.30601448  0.25000000  0.53261130  1
  Se  Se29  1  0.80601448  0.25000000  0.96738870  1
  Se  Se30  1  0.69398552  0.75000000  0.46738870  1
  Se  Se31  1  0.19398552  0.75000000  0.03261130  1
  Se  Se32  1  0.40877155  0.25000000  0.17291383  1
  Se  Se33  1  0.90877155  0.25000000  0.32708617  1
  Se  Se34  1  0.59122845  0.75000000  0.82708617  1
  Se  Se35  1  0.09122845  0.75000000  0.67291383  1
