# generated using pymatgen
data_Ho2Fe2Si2C
_symmetry_space_group_name_H-M   'P 1'
_cell_length_a   5.59246274
_cell_length_b   5.59246274
_cell_length_c   6.68175335
_cell_angle_alpha   53.32608408
_cell_angle_beta   53.32608408
_cell_angle_gamma   40.74016644
_symmetry_Int_Tables_number   1
_chemical_formula_structural   Ho2Fe2Si2C
_chemical_formula_sum   'Ho2 Fe2 Si2 C1'
_cell_volume   105.12201097
_cell_formula_units_Z   1
loop_
 _symmetry_equiv_pos_site_id
 _symmetry_equiv_pos_as_xyz
  1  'x, y, z'
loop_
 _atom_site_type_symbol
 _atom_site_label
 _atom_site_symmetry_multiplicity
 _atom_site_fract_x
 _atom_site_fract_y
 _atom_site_fract_z
 _atom_site_occupancy
  Ho  Ho0  1  0.44180024  0.44180024  0.29253845  1
  Ho  Ho1  1  0.55819976  0.55819976  0.70746155  1
  Fe  Fe2  1  0.79869739  0.79869739  0.09586383  1
  Fe  Fe3  1  0.20130261  0.20130261  0.90413617  1
  Si  Si4  1  0.83799138  0.83799138  0.71740061  1
  Si  Si5  1  0.16200862  0.16200862  0.28259939  1
  C  C6  1  0.00000000  0.00000000  0.00000000  1
