# generated using pymatgen
data_Sr2GeN2
_symmetry_space_group_name_H-M   'P 1'
_cell_length_a   11.78691578
_cell_length_b   11.78691578
_cell_length_c   5.39456733
_cell_angle_alpha   90.00000000
_cell_angle_beta   90.00000000
_cell_angle_gamma   90.00000000
_symmetry_Int_Tables_number   1
_chemical_formula_structural   Sr2GeN2
_chemical_formula_sum   'Sr16 Ge8 N16'
_cell_volume   749.47470311
_cell_formula_units_Z   8
loop_
 _symmetry_equiv_pos_site_id
 _symmetry_equiv_pos_as_xyz
  1  'x, y, z'
loop_
 _atom_site_type_symbol
 _atom_site_label
 _atom_site_symmetry_multiplicity
 _atom_site_fract_x
 _atom_site_fract_y
 _atom_site_fract_z
 _atom_site_occupancy
  Sr  Sr0  1  0.47800506  0.15160849  0.50000000  1
  Sr  Sr1  1  0.52199494  0.84839151  0.50000000  1
  Sr  Sr2  1  0.84839151  0.47800506  0.00000000  1
  Sr  Sr3  1  0.15160849  0.52199494  -0.00000000  1
  Sr  Sr4  1  0.65160849  0.97800506  -0.00000000  1
  Sr  Sr5  1  0.97800506  0.34839151  0.50000000  1
  Sr  Sr6  1  0.02199494  0.65160849  0.50000000  1
  Sr  Sr7  1  0.34839151  0.02199494  -0.00000000  1
  Sr  Sr8  1  0.13322469  0.08083254  0.50000000  1
  Sr  Sr9  1  0.86677531  0.91916746  0.50000000  1
  Sr  Sr10  1  0.91916746  0.13322469  0.00000000  1
  Sr  Sr11  1  0.08083254  0.86677531  -0.00000000  1
  Sr  Sr12  1  0.58083254  0.63322469  -0.00000000  1
  Sr  Sr13  1  0.63322469  0.41916746  0.50000000  1
  Sr  Sr14  1  0.36677531  0.58083254  0.50000000  1
  Sr  Sr15  1  0.41916746  0.36677531  0.00000000  1
  Ge  Ge16  1  0.15108886  0.25592929  -0.00000000  1
  Ge  Ge17  1  0.25592929  0.84891114  0.50000000  1
  Ge  Ge18  1  0.74407071  0.15108886  0.50000000  1
  Ge  Ge19  1  0.84891114  0.74407071  0.00000000  1
  Ge  Ge20  1  0.34891114  0.75592929  0.00000000  1
  Ge  Ge21  1  0.65108886  0.24407071  0.00000000  1
  Ge  Ge22  1  0.75592929  0.65108886  0.50000000  1
  Ge  Ge23  1  0.24407071  0.34891114  0.50000000  1
  N  N24  1  0.16546825  0.48787908  0.50000000  1
  N  N25  1  0.83453175  0.51212092  0.50000000  1
  N  N26  1  0.51212092  0.16546825  -0.00000000  1
  N  N27  1  0.48787908  0.83453175  0.00000000  1
  N  N28  1  0.98787908  0.66546825  0.00000000  1
  N  N29  1  0.66546825  0.01212092  0.50000000  1
  N  N30  1  0.33453175  0.98787908  0.50000000  1
  N  N31  1  0.01212092  0.33453175  -0.00000000  1
  N  N32  1  0.40107930  0.36606601  0.50000000  1
  N  N33  1  0.59892070  0.63393399  0.50000000  1
  N  N34  1  0.63393399  0.40107930  -0.00000000  1
  N  N35  1  0.36606601  0.59892070  0.00000000  1
  N  N36  1  0.86606601  0.90107930  -0.00000000  1
  N  N37  1  0.90107930  0.13393399  0.50000000  1
  N  N38  1  0.09892070  0.86606601  0.50000000  1
  N  N39  1  0.13393399  0.09892070  0.00000000  1
