# generated using pymatgen
data_Cs3FeS3
_symmetry_space_group_name_H-M   'P 1'
_cell_length_a   10.50073588
_cell_length_b   10.50073588
_cell_length_c   13.52621264
_cell_angle_alpha   90.00000000
_cell_angle_beta   90.00000000
_cell_angle_gamma   139.17742963
_symmetry_Int_Tables_number   1
_chemical_formula_structural   Cs3FeS3
_chemical_formula_sum   'Cs12 Fe4 S12'
_cell_volume   975.00451150
_cell_formula_units_Z   4
loop_
 _symmetry_equiv_pos_site_id
 _symmetry_equiv_pos_as_xyz
  1  'x, y, z'
loop_
 _atom_site_type_symbol
 _atom_site_label
 _atom_site_symmetry_multiplicity
 _atom_site_fract_x
 _atom_site_fract_y
 _atom_site_fract_z
 _atom_site_occupancy
  Cs  Cs0  1  0.87258144  0.87258144  0.68156960  1
  Cs  Cs1  1  0.12741856  0.12741856  0.31843040  1
  Cs  Cs2  1  0.62741856  0.62741856  0.18156960  1
  Cs  Cs3  1  0.37258144  0.37258144  0.81843040  1
  Cs  Cs4  1  0.17573000  0.52919372  0.12652706  1
  Cs  Cs5  1  0.47080628  0.82427000  0.87347294  1
  Cs  Cs6  1  0.97080628  0.32427000  0.62652706  1
  Cs  Cs7  1  0.67573000  0.02919372  0.37347294  1
  Cs  Cs8  1  0.82427000  0.47080628  0.87347294  1
  Cs  Cs9  1  0.52919372  0.17573000  0.12652706  1
  Cs  Cs10  1  0.02919372  0.67573000  0.37347294  1
  Cs  Cs11  1  0.32427000  0.97080628  0.62652706  1
  Fe  Fe12  1  0.91999023  0.08000977  -0.00000000  1
  Fe  Fe13  1  0.41999023  0.58000977  0.50000000  1
  Fe  Fe14  1  0.08000977  0.91999023  -0.00000000  1
  Fe  Fe15  1  0.58000977  0.41999023  0.50000000  1
  S  S16  1  0.29350301  0.29350301  0.56388146  1
  S  S17  1  0.70649699  0.70649699  0.43611854  1
  S  S18  1  0.20649699  0.20649699  0.06388146  1
  S  S19  1  0.79350301  0.79350301  0.93611854  1
  S  S20  1  0.72176156  0.01091012  0.11677522  1
  S  S21  1  0.98908988  0.27823844  0.88322478  1
  S  S22  1  0.48908988  0.77823844  0.61677522  1
  S  S23  1  0.22176156  0.51091012  0.38322478  1
  S  S24  1  0.27823844  0.98908988  0.88322478  1
  S  S25  1  0.01091012  0.72176156  0.11677522  1
  S  S26  1  0.51091012  0.22176156  0.38322478  1
  S  S27  1  0.77823844  0.48908988  0.61677522  1
