# generated using pymatgen
data_Rb3FeS3
_symmetry_space_group_name_H-M   'P 1'
_cell_length_a   10.20174611
_cell_length_b   10.20174611
_cell_length_c   13.05386081
_cell_angle_alpha   90.00000000
_cell_angle_beta   90.00000000
_cell_angle_gamma   140.13253078
_symmetry_Int_Tables_number   1
_chemical_formula_structural   Rb3FeS3
_chemical_formula_sum   'Rb12 Fe4 S12'
_cell_volume   870.87431979
_cell_formula_units_Z   4
loop_
 _symmetry_equiv_pos_site_id
 _symmetry_equiv_pos_as_xyz
  1  'x, y, z'
loop_
 _atom_site_type_symbol
 _atom_site_label
 _atom_site_symmetry_multiplicity
 _atom_site_fract_x
 _atom_site_fract_y
 _atom_site_fract_z
 _atom_site_occupancy
  Rb  Rb0  1  0.85723296  0.85723296  0.32770524  1
  Rb  Rb1  1  0.14276704  0.14276704  0.67229476  1
  Rb  Rb2  1  0.64276704  0.64276704  0.82770524  1
  Rb  Rb3  1  0.35723296  0.35723296  0.17229476  1
  Rb  Rb4  1  0.82805622  0.47445105  0.12874059  1
  Rb  Rb5  1  0.52554895  0.17194378  0.87125941  1
  Rb  Rb6  1  0.02554895  0.67194378  0.62874059  1
  Rb  Rb7  1  0.32805622  0.97445105  0.37125941  1
  Rb  Rb8  1  0.17194378  0.52554895  0.87125941  1
  Rb  Rb9  1  0.47445105  0.82805622  0.12874059  1
  Rb  Rb10  1  0.97445105  0.32805622  0.37125941  1
  Rb  Rb11  1  0.67194378  0.02554895  0.62874059  1
  Fe  Fe12  1  0.08269706  0.91730294  -0.00000000  1
  Fe  Fe13  1  0.58269706  0.41730294  0.50000000  1
  Fe  Fe14  1  0.91730294  0.08269706  -0.00000000  1
  Fe  Fe15  1  0.41730294  0.58269706  0.50000000  1
  S  S16  1  0.00283962  0.30100116  0.11611009  1
  S  S17  1  0.69899884  -0.00283962  0.88388991  1
  S  S18  1  0.19899884  0.49716038  0.61611009  1
  S  S19  1  0.50283962  0.80100116  0.38388991  1
  S  S20  1  -0.00283962  0.69899884  0.88388991  1
  S  S21  1  0.30100116  0.00283962  0.11611009  1
  S  S22  1  0.80100116  0.50283962  0.38388991  1
  S  S23  1  0.49716038  0.19899884  0.61611009  1
  S  S24  1  0.79460370  0.79460370  0.07517169  1
  S  S25  1  0.20539630  0.20539630  0.92482831  1
  S  S26  1  0.70539630  0.70539630  0.57517169  1
  S  S27  1  0.29460370  0.29460370  0.42482831  1
