# generated using pymatgen
data_K3FeS3
_symmetry_space_group_name_H-M   'P 1'
_cell_length_a   12.54520855
_cell_length_b   7.72147962
_cell_length_c   10.12179560
_cell_angle_alpha   52.50176410
_cell_angle_beta   90.00000000
_cell_angle_gamma   90.00000000
_symmetry_Int_Tables_number   1
_chemical_formula_structural   K3FeS3
_chemical_formula_sum   'K12 Fe4 S12'
_cell_volume   777.88051405
_cell_formula_units_Z   4
loop_
 _symmetry_equiv_pos_site_id
 _symmetry_equiv_pos_as_xyz
  1  'x, y, z'
loop_
 _atom_site_type_symbol
 _atom_site_label
 _atom_site_symmetry_multiplicity
 _atom_site_fract_x
 _atom_site_fract_y
 _atom_site_fract_z
 _atom_site_occupancy
  K  K0  1  0.92001423  0.64748084  0.60916336  1
  K  K1  1  0.42001423  0.35251916  0.89083664  1
  K  K2  1  0.07998577  0.35251916  0.39083664  1
  K  K3  1  0.57998577  0.64748084  0.10916336  1
  K  K4  1  0.62948422  0.61994861  0.52438366  1
  K  K5  1  0.12948422  0.38005139  0.97561634  1
  K  K6  1  0.37051578  0.38005139  0.47561634  1
  K  K7  1  0.87051578  0.61994861  0.02438366  1
  K  K8  1  0.81025469  0.13287610  0.57875127  1
  K  K9  1  0.31025469  0.86712390  0.92124873  1
  K  K10  1  0.18974531  0.86712390  0.42124873  1
  K  K11  1  0.68974531  0.13287610  0.07875127  1
  Fe  Fe12  1  0.55837883  0.93682655  0.66165834  1
  Fe  Fe13  1  0.05837883  0.06317345  0.83834166  1
  Fe  Fe14  1  0.44162117  0.06317345  0.33834166  1
  Fe  Fe15  1  0.94162117  0.93682655  0.16165834  1
  S  S16  1  0.11016653  0.85221763  0.12006664  1
  S  S17  1  0.61016653  0.14778237  0.37993336  1
  S  S18  1  0.88983347  0.14778237  0.87993336  1
  S  S19  1  0.38983347  0.85221763  0.62006664  1
  S  S20  1  0.04664315  0.87360874  0.73869287  1
  S  S21  1  0.54664315  0.12639126  0.76130713  1
  S  S22  1  0.95335685  0.12639126  0.26130713  1
  S  S23  1  0.45335685  0.87360874  0.23869287  1
  S  S24  1  0.67017744  0.65144313  0.81317374  1
  S  S25  1  0.17017744  0.34855687  0.68682626  1
  S  S26  1  0.32982256  0.34855687  0.18682626  1
  S  S27  1  0.82982256  0.65144313  0.31317374  1
