# generated using pymatgen
data_La3AsI3
_symmetry_space_group_name_H-M   'P 1'
_cell_length_a   10.96413026
_cell_length_b   10.96380372
_cell_length_c   10.96357670
_cell_angle_alpha   109.47007398
_cell_angle_beta   109.47187977
_cell_angle_gamma   109.46982122
_symmetry_Int_Tables_number   1
_chemical_formula_structural   La3AsI3
_chemical_formula_sum   'La12 As4 I12'
_cell_volume   1014.55575781
_cell_formula_units_Z   4
loop_
 _symmetry_equiv_pos_site_id
 _symmetry_equiv_pos_as_xyz
  1  'x, y, z'
loop_
 _atom_site_type_symbol
 _atom_site_label
 _atom_site_symmetry_multiplicity
 _atom_site_fract_x
 _atom_site_fract_y
 _atom_site_fract_z
 _atom_site_occupancy
  La  La0  1  0.76560435  0.53119784  0.51558927  1
  La  La1  1  0.98440466  0.51558857  0.24999864  1
  La  La2  1  0.53110099  0.51554534  0.76554886  1
  La  La3  1  0.25000022  0.76553351  0.73445776  1
  La  La4  1  0.51559846  0.76560158  0.53120176  1
  La  La5  1  0.73440580  0.24999044  0.76558818  1
  La  La6  1  0.51559465  0.24999294  0.98439752  1
  La  La7  1  0.73443811  0.98444543  0.96887986  1
  La  La8  1  0.76556007  0.73443435  0.25000054  1
  La  La9  1  0.96882361  0.73440525  0.98440562  1
  La  La10  1  0.25000051  0.98442648  0.51556640  1
  La  La11  1  0.98442843  0.96884274  0.73441577  1
  As  As12  1  0.75000662  0.75000266  0.74999703  1
  As  As13  1  -0.00000414  0.74999653  0.49999412  1
  As  As14  1  0.75000175  0.49999786  -0.00000022  1
  As  As15  1  0.50000175  0.00000106  0.74999993  1
  I  I16  1  0.25976524  0.74998556  0.24021523  1
  I  I17  1  0.74999775  0.00979888  0.49018992  1
  I  I18  1  0.00981486  0.49018778  0.74999558  1
  I  I19  1  0.01961279  0.25979514  0.00979451  1
  I  I20  1  0.49018743  0.24017478  0.48038316  1
  I  I21  1  0.00980804  0.01961698  0.25981307  1
  I  I22  1  0.24023174  0.48045847  0.49021511  1
  I  I23  1  0.24018205  0.25979494  0.74999622  1
  I  I24  1  0.49019304  0.75000076  0.00980767  1
  I  I25  1  0.48043310  0.49019804  0.24020046  1
  I  I26  1  0.75001523  0.24020021  0.25979665  1
  I  I27  1  0.25979389  0.00978589  0.01954937  1
