# generated using pymatgen
data_Ba3Sb4O
_symmetry_space_group_name_H-M   'P 1'
_cell_length_a   13.03622118
_cell_length_b   7.09595194
_cell_length_c   13.10800241
_cell_angle_alpha   67.64168474
_cell_angle_beta   90.00000000
_cell_angle_gamma   90.00000000
_symmetry_Int_Tables_number   1
_chemical_formula_structural   Ba3Sb4O
_chemical_formula_sum   'Ba12 Sb16 O4'
_cell_volume   1121.39221016
_cell_formula_units_Z   4
loop_
 _symmetry_equiv_pos_site_id
 _symmetry_equiv_pos_as_xyz
  1  'x, y, z'
loop_
 _atom_site_type_symbol
 _atom_site_label
 _atom_site_symmetry_multiplicity
 _atom_site_fract_x
 _atom_site_fract_y
 _atom_site_fract_z
 _atom_site_occupancy
  Ba  Ba0  1  0.23454119  0.81049853  0.51998503  1
  Ba  Ba1  1  0.44175092  0.20374356  0.54713393  1
  Ba  Ba2  1  0.76545881  0.18950147  0.48001497  1
  Ba  Ba3  1  0.94744471  0.38883222  0.72141991  1
  Ba  Ba4  1  0.05824908  0.20374356  0.04713393  1
  Ba  Ba5  1  0.26545881  0.81049853  0.01998503  1
  Ba  Ba6  1  0.94175092  0.79625644  0.95286607  1
  Ba  Ba7  1  0.05255529  0.61116778  0.27858009  1
  Ba  Ba8  1  0.55255529  0.38883222  0.22141991  1
  Ba  Ba9  1  0.73454119  0.18950147  0.98001497  1
  Ba  Ba10  1  0.44744471  0.61116778  0.77858009  1
  Ba  Ba11  1  0.55824908  0.79625644  0.45286607  1
  Sb  Sb12  1  0.97968977  0.06946354  0.34196119  1
  Sb  Sb13  1  0.47968977  0.93053646  0.15803881  1
  Sb  Sb14  1  0.65599469  0.72538578  0.93495965  1
  Sb  Sb15  1  0.34424554  0.64843687  0.31436860  1
  Sb  Sb16  1  0.02031023  0.93053646  0.65803881  1
  Sb  Sb17  1  0.15599469  0.27461422  0.56504035  1
  Sb  Sb18  1  0.65575446  0.35156313  0.68563140  1
  Sb  Sb19  1  0.76861394  0.70114458  0.23645554  1
  Sb  Sb20  1  0.84424554  0.35156313  0.18563140  1
  Sb  Sb21  1  0.34400531  0.27461422  0.06504035  1
  Sb  Sb22  1  0.73138606  0.70114458  0.73645554  1
  Sb  Sb23  1  0.84400531  0.72538578  0.43495965  1
  Sb  Sb24  1  0.52031023  0.06946354  0.84196119  1
  Sb  Sb25  1  0.26861394  0.29885542  0.26354446  1
  Sb  Sb26  1  0.23138606  0.29885542  0.76354446  1
  Sb  Sb27  1  0.15575446  0.64843687  0.81436860  1
  O  O28  1  0.91402335  0.16702608  0.92067671  1
  O  O29  1  0.08597665  0.83297392  0.07932329  1
  O  O30  1  0.41402335  0.83297392  0.57932329  1
  O  O31  1  0.58597665  0.16702608  0.42067671  1
